sim-safe: SimpleScalar/PISA Tool Set version 3.0 of August, 2003.
Copyright (c) 1994-2003 by Todd M. Austin, Ph.D. and SimpleScalar, LLC.
All Rights Reserved. This version of SimpleScalar is licensed for academic
non-commercial use.  No portion of this work may be used by any commercial
entity, or for any commercial purpose, without the prior written permission
of SimpleScalar, LLC (info@simplescalar.com).

sim: command line: sim-safe ../microbenchmarks/mbench-1 

sim: simulation started @ Sun Mar 23 13:34:11 2025, options follow:

sim-safe: This simulator implements a functional simulator.  This
functional simulator is the simplest, most user-friendly simulator in the
simplescalar tool set.  Unlike sim-fast, this functional simulator checks
for all instruction errors, and the implementation is crafted for clarity
rather than speed.

# -config                     # load configuration from a file
# -dumpconfig                 # dump configuration to a file
# -h                    false # print help message    
# -v                    false # verbose operation     
# -d                    false # enable debug message  
# -i                    false # start in Dlite debugger
-seed                       1 # random number generator seed (0 for timer seed)
# -q                    false # initialize and terminate immediately
# -chkpt               <null> # restore EIO trace execution from <fname>
# -redir:sim           <null> # redirect simulator output to file (non-interactive only)
# -redir:prog          <null> # redirect simulated program output to file
-nice                       0 # simulator scheduling priority
-max:inst                   0 # maximum number of inst's to execute

sim: ** starting functional simulation **

sim: ** simulation statistics **
sim_num_lduh                     91 # total number of load use hazards
sim_load_use_ratio           0.0025 # load use fraction
sim_num_insn                  36265 # total number of instructions executed
sim_num_refs                   3667 # total number of loads and stores executed
sim_elapsed_time                  1 # total simulation time in seconds
sim_inst_rate            36265.0000 # simulation speed (in insts/sec)
sim_num_RAW_hazard_q1             0 # total number of RAW hazards (q1)
sim_num_RAW_hazard_q2             0 # total number of RAW hazards (q2)
CPI_from_RAW_hazard_q1       1.0000 # CPI from RAW hazard (q1)
CPI_from_RAW_hazard_q2       1.0000 # CPI from RAW hazard (q2)
ld_text_base             0x00400000 # program text (code) segment base
ld_text_size                  23104 # program text (code) size in bytes
ld_data_base             0x10000000 # program initialized data segment base
ld_data_size                   4096 # program init'ed `.data' and uninit'ed `.bss' size in bytes
ld_stack_base            0x7fffc000 # program stack segment base (highest address in stack)
ld_stack_size                 16384 # program initial stack size
ld_prog_entry            0x00400140 # program entry point (initial PC)
ld_environ_base          0x7fff8000 # program environment base address address
ld_target_big_endian              0 # target executable endian-ness, non-zero if big endian
mem.page_count                   12 # total number of pages allocated
mem.page_mem                    48k # total size of memory pages allocated
mem.ptab_misses                  12 # total first level page table misses
mem.ptab_accesses            294196 # total page table accesses
mem.ptab_miss_rate           0.0000 # first level page table miss rate

Register Statistics
All Writes - All Reads - Avg Read/Write - Min Read - Max Read
r1	5	4	0.80	0	1
r2	10732	13463	1.25	0	8
r3	10553	20974	1.99	0	4
r4	74	137	1.85	0	8
r5	34	65	1.91	0	7
r6	31	63	2.03	0	4
r7	25	3164	126.56	0	3072
r8	413	834	2.02	0	12
r9	7	12	1.71	0	4
r10	1	0	0.00	0	0
r11	1	0	0.00	0	0
r16	66	241	3.65	0	23
r17	36	45	1.25	0	4
r18	23	39	1.70	0	4
r19	17	26	1.53	0	3
r20	8	9	1.12	0	2
r21	5	7	1.40	0	2
r22	4	2	0.50	0	1
r23	4	4	1.00	0	1
r28	2	1	0.50	0	1
r29	86	322	3.74	0	19
r31	94	93	0.99	0	1

Distribution Statistics
Reg	16	32	64	128	256	>256
r1	1.000000	1.000000	1.000000	1.000000	1.000000	1.000000	
r2	1.000000	1.000000	1.000000	1.000000	1.000000	1.000000	
r3	1.000000	1.000000	1.000000	1.000000	1.000000	1.000000	
r4	1.000000	1.000000	1.000000	1.000000	1.000000	1.000000	
r5	1.000000	1.000000	1.000000	1.000000	1.000000	1.000000	
r6	1.000000	1.000000	1.000000	1.000000	1.000000	1.000000	
r7	0.916667	1.000000	1.000000	1.000000	1.000000	1.000000	
r8	1.000000	1.000000	1.000000	1.000000	1.000000	1.000000	
r9	1.000000	1.000000	1.000000	1.000000	1.000000	1.000000	
r10	1.000000	1.000000	1.000000	1.000000	1.000000	1.000000	
r11	1.000000	1.000000	1.000000	1.000000	1.000000	1.000000	
r16	0.969697	1.000000	1.000000	1.000000	1.000000	1.000000	
r17	1.000000	1.000000	1.000000	1.000000	1.000000	1.000000	
r18	1.000000	1.000000	1.000000	1.000000	1.000000	1.000000	
r19	1.000000	1.000000	1.000000	1.000000	1.000000	1.000000	
r20	1.000000	1.000000	1.000000	1.000000	1.000000	1.000000	
r21	1.000000	1.000000	1.000000	1.000000	1.000000	1.000000	
r22	1.000000	1.000000	1.000000	1.000000	1.000000	1.000000	
r23	1.000000	1.000000	1.000000	1.000000	1.000000	1.000000	
r28	1.000000	1.000000	1.000000	1.000000	1.000000	1.000000	
r29	0.976744	1.000000	1.000000	1.000000	1.000000	1.000000	
r31	1.000000	1.000000	1.000000	1.000000	1.000000	1.000000	

